##CIF_1.1

data_sm_global
#Used dictionaries
loop_
_audit_conform_dict_name
_audit_conform_dict_version
_audit_conform_dict_location
cif_core.dic 	2.4.2 	.
cif_pd.dic 		1.0.1 	.
cif_sm.dic 		0.1 	'redaktion.landolt-boernstein(at)springer.com'

#About this content and reference
_sm_credits_copyright
;PAULING FILE Multinaries Edition - 2012. SpringerMaterials Release 2014.
http://www.paulingfile.com
Unique LPF ID Number SD0376502
Project Coordinator: Shuichi Iwata
Section-Editors: Karin Cenzual (Crystal Structures), Hiroaki Okamoto (Phase 
Diagrams), Fritz Hulliger (Physical Properties)
(c) Springer & Material Phases Data System (MPDS), Switzerland & National 
Institute for Materials Science (NIMS), Japan 2014.
(Data generated pre-2002: (c) Springer & MPDS & NIMS; 
post-2001: (c) Springer & MPDS)
All Rights Reserved. Version 2014.06.
;

_audit_creation_method
;This data have been compiled from the crystallographic datasheet for 
"Ba3V2O8 (Ba3[VO4]2) Crystal Structure" 
taken from SpringerMaterials (sm_isp_sd_0376502).
;

_publ_section_references
;Antonov V.A., Arsen'ev P.A., Tadzhi Aglaev K.G.: <i>X-Ray Diffraction Analysis of Vanadates in the Ba<sub>3</sub>V<sub>2</sub>O<sub>7</sub>-LaVO<sub>4</sub> Section</i>. (Russian) Journal of Inorganic Chemistry (translated from Zhurnal Neorganicheskoi Khimii) <b>31</b> (1986) 1409-1410.
;

#Phase classification
_sm_phase_labels				'Ba3[VO4]2'
_chemical_name_mineral			'gurimite'
_sm_chemical_compound_class		'vanadate'
_sm_phase_prototype				'Ba3 [PO4 ]2 '
_sm_pearson_symbol				'hR39'
_symmetry_Int_Tables_number		166
_sm_sample_details
;powder (determination of cell parameters)
;
_sm_measurement_details
;film (determination of cell parameters), 
X-rays, Cu K&#x03b1; (determination of cell parameters)
;
_sm_interpretation_details
;cell parameters determined and structure type assigned
;

data_sm_isp_SD0376502-standardized_unitcell
#Cell Parameters
_cell_length_a					5.783
_cell_length_b					5.783
_cell_length_c					21.34
_cell_angle_alpha				90
_cell_angle_beta				90
_cell_angle_gamma				120
_sm_length_ratio_ab				1.000
_sm_length_ratio_bc				0.271
_sm_length_ratio_ca				3.690
_cell_volume 					618.1
_symmetry_space_group_name_H-M	'R-3m'
_symmetry_Int_Tables_number		166
_cell_formula_units_Z			3
_sm_cell_transformation
;No transformation from published to standardized cell parameters necessary.
;

#Atom Coordinates
loop_
_atom_site_label
_atom_site_type_symbol
_atom_site_Wyckoff_symbol
_sm_site_symmetry
_atom_site_fract_x
_atom_site_fract_y
_atom_site_fract_z
_atom_site_occupancy
_sm_coordination_number
_sm_atomic_environment_type
O1 'O' .18h ..m 0.489 0.511 0.2335 1 ? '?'
Ba1 'Ba' .6c .3m 0 0 0.2085 1 ? '?'
O2 'O' .6c .3m 0 0 0.3343 1 ? '?'
V1 'V' .6c .3m 0 0 0.4081 1 ? '?'
Ba2 'Ba' .3a .-3m 0 0 0 1 ? '?'

_sm_atom_site_transformation
;No transformation from published to standardized cell parameters necessary.
Atom coordinates assigned by editor.
;

data_sm_isp_SD0376502-published_cell
#Cell Parameters
_cell_length_a					5.783
_cell_length_b					5.783
_cell_length_c					21.34
_cell_angle_alpha				90
_cell_angle_beta				90
_cell_angle_gamma				120
_sm_length_ratio_ab				1.000
_sm_length_ratio_bc				0.271
_sm_length_ratio_ca				3.690
_cell_volume 					618.06
_symmetry_space_group_name_H-M	'R-3m'
_symmetry_Int_Tables_number		166
_cell_formula_units_Z			3

#Atom Coordinates
loop_
_atom_site_label
_atom_site_type_symbol
_atom_site_Wyckoff_symbol
_sm_site_symmetry
_atom_site_fract_x
_atom_site_fract_y
_atom_site_fract_z
_atom_site_occupancy
_sm_coordination_number
_sm_atomic_environment_type
? ? ? ? ? ? ? ? ? ?

data_sm_isp_SD0376502-niggli_reduced_cell
#Cell Parameters
_cell_length_a					5.783
_cell_length_b					5.783
_cell_length_c					7.8579
_cell_angle_alpha				68.409
_cell_angle_beta				68.409
_cell_angle_gamma				60
_sm_length_ratio_ab				1.000
_sm_length_ratio_bc				0.736
_sm_length_ratio_ca				1.359
_cell_volume 					206.02
_symmetry_space_group_name_H-M	''
_symmetry_Int_Tables_number		?
_cell_formula_units_Z			3

#Atom Coordinates
loop_
_atom_site_label
_atom_site_type_symbol
_atom_site_Wyckoff_symbol
_sm_site_symmetry
_atom_site_fract_x
_atom_site_fract_y
_atom_site_fract_z
_atom_site_occupancy
_sm_coordination_number
_sm_atomic_environment_type
? ? ? ? ? ? ? ? ? ?

